LTspice 24.0.12 for Windows
Circuit: * C:\Users\lagas\310TEAM11\Jeremy\555 Timer Lt Spice.asc
Start Time: Mon May 12 20:01:24 2025
solver = Normal
Maximum thread count: 16
tnom = 27
temp = 27
method = modified trap
Direct Newton iteration for .op point succeeded.
Total elapsed time: 43.690 seconds.

