LTspice 24.0.12 for Windows
Circuit: * C:\Users\llag396\OneDrive - The University of Auckland\Documents\GitHub\310TEAM11\Jeremy\555 Timer Lt Spice.asc
Start Time: Fri Apr  4 12:11:22 2025
solver = Normal
Maximum thread count: 24
tnom = 27
temp = 27
method = modified trap
Direct Newton iteration for .op point succeeded.
Total elapsed time: 2.299 seconds.

