LTspice 24.0.12 for Windows
Circuit: * C:\Users\jmul290\OneDrive - The University of Auckland\Documents\310TEAM11\Jeremy\Receiver_2.asc
Start Time: Thu May  1 15:31:19 2025
solver = Normal
Maximum thread count: 24
tnom = 27
temp = 27
method = modified trap
Limiting rise time of source i1 to 2e-06
Limiting fall time of source i1 to 2e-06
WARNING: Less than two connections to node pwmdis.  This node is used by r16.
Early termination of direct N-R iteration.
Direct Newton iteration failed to find .op point.  (Use ".option noopiter" to skip.)
Starting Gmin stepping
Increasing initial diagonal Gmin to 100
Gmin = 100
vernier = 0.5
Gmin = 18.6414
vernier = 0.25
vernier = 0.125
vernier = 0.0625
vernier = 0.03125
Gmin = 19.4331
vernier = 0.015625
vernier = 0.0078125
vernier = 0.00390625
vernier = 0.00195312
Gmin = 19.5276
vernier = 0.000976562
vernier = 0.000488281
Gmin = 0
Gmin stepping failed

Starting source stepping with srcstepmethod=0
Source Step = 3.0303%
Source Step = 23.4848%
Source Step = 31.0606%
Source Step = 38.6364%
Source Step = 46.2121%
Source Step = 53.7879%
vernier = 0.375
Source Step = 62.1212%
Source Step = 73.4848%
Source Step = 84.8485%
Source Step = 96.2121%
Source stepping succeeded in finding the operating point.

Total elapsed time: 7.128 seconds.

