LTspice 24.0.12 for Windows
Circuit: * C:\Users\llag396\OneDrive - The University of Auckland\Documents\GitHub\310TEAM11\Lanna\alternative_rx.asc
Start Time: Fri Apr  4 12:48:33 2025
solver = Normal
Maximum thread count: 24
tnom = 27
temp = 27
method = modified trap
Limiting rise time of source i1 to 2e-07
Limiting fall time of source i1 to 2e-07
Direct Newton iteration for .op point succeeded.
Total elapsed time: 0.152 seconds.

