LTspice 24.0.12 for Windows
Circuit: * C:\Users\lagas\310TEAM11\Lanna\alternative_rx.asc
Start Time: Sun Apr  6 11:31:28 2025
solver = Normal
Maximum thread count: 16
tnom = 27
temp = 27
method = modified trap
Limiting rise time of source i1 to 2e-07
Direct Newton iteration for .op point succeeded.
Total elapsed time: 0.127 seconds.

