LTspice 24.0.12 for Windows
Circuit: * C:\Users\llag396\Downloads\310TEAM11\Lanna\alternative_rx.asc
Start Time: Wed Apr  9 13:57:29 2025
solver = Normal
Maximum thread count: 24
tnom = 27
temp = 27
method = modified trap
Limiting rise time of source i1 to 2e-06
Limiting fall time of source i1 to 2e-06
Direct Newton iteration for .op point succeeded.
Total elapsed time: 9.366 seconds.

